FoamFile
{
    version     2.0;
    format      ascii;
    class       dictionary;
    location    "constant";
    object      momentumTransport;
}

simulationType RAS;

RAS
{
    RASModel        kOmegaSST;
    turbulence      on;
    printCoeffs     on;
}

viscosityModel  Newtonian;
nu              nu [0 2 -1 0 0 0 0] 1e-06;
