FoamFile
{
    version     2.0;
    format      ascii;
    class       dictionary;
    object      fvSolution;
}

solvers
{
    p
    {
        solver          PCG;
        preconditioner  DIC;
        tolerance       1e-06;
        relTol          0;
    }

    pFinal
    {
        $p;
        relTol          0;
    }

    U
    {
        solver          PBiCG;
        preconditioner  DILU;
        tolerance       1e-05;
        relTol          0;
    }

    UFinal
    {
        $U;
        relTol          0;
    }

    k
    {
        solver          PBiCG;
        preconditioner  DILU;
        tolerance       1e-05;
        relTol          0;
    }

    kFinal
    {
        $k;
        relTol          0;
    }

    omega
    {
        solver          PBiCG;
        preconditioner  DILU;
        tolerance       1e-05;
        relTol          0;
    }

    omegaFinal
    {
        $omega;
        relTol          0;
    }

    // New solver for turbidity
    turbidity
    {
        solver          PBiCG;
        preconditioner  DILU;
        tolerance       1e-05;
        relTol          0;
    }

    turbidityFinal
    {
        $turbidity;
        relTol          0;
    }
}

PIMPLE
{
    nOuterCorrectors 2;
    nCorrectors      2;
    nNonOrthogonalCorrectors 0;
}

relaxationFactors
{
    fields
    {
        p           0.3;
        k           0.7;
        omega       0.7;
        turbidity   0.7;
    }
    equations
    {
        U           0.7;
    }
}
